Version 4
SHEET 1 1520 680
WIRE 96 -64 -32 -64
WIRE 320 -64 96 -64
WIRE 576 -64 320 -64
WIRE 752 -64 576 -64
WIRE 928 -64 848 -64
WIRE 1040 -64 928 -64
WIRE 1120 -64 1040 -64
WIRE 1232 -64 1200 -64
WIRE 1296 -64 1232 -64
WIRE 1408 -64 1296 -64
WIRE 1424 -64 1408 -64
WIRE 928 -32 928 -64
WIRE 1040 -32 1040 -64
WIRE 1424 -32 1424 -64
WIRE 320 -16 320 -64
WIRE 1296 -16 1296 -64
WIRE 576 32 576 -64
WIRE 624 32 576 32
WIRE 768 32 768 -16
WIRE 768 32 704 32
WIRE 928 64 928 32
WIRE 1040 80 1040 32
WIRE 1296 80 1296 48
WIRE 1424 80 1424 48
WIRE 576 96 576 32
WIRE 320 112 320 64
WIRE 320 112 224 112
WIRE 432 112 320 112
WIRE 512 112 432 112
WIRE 544 112 512 112
WIRE 224 128 224 112
WIRE 672 128 608 128
WIRE 768 128 768 32
WIRE 768 128 672 128
WIRE -32 144 -32 -64
WIRE 432 144 432 112
WIRE 544 144 528 144
WIRE 96 160 96 -64
WIRE 320 192 320 112
WIRE 576 192 576 160
WIRE 1040 208 1040 160
WIRE 224 224 224 208
WIRE 288 224 224 224
WIRE 224 240 224 224
WIRE 432 240 432 208
WIRE 528 320 528 144
WIRE 1232 320 1232 -64
WIRE 1232 320 528 320
WIRE -32 400 -32 224
WIRE 96 400 96 224
WIRE 96 400 -32 400
WIRE 224 400 224 320
WIRE 224 400 96 400
WIRE 320 400 320 256
WIRE 320 400 224 400
WIRE -32 416 -32 400
FLAG -32 416 0
FLAG 432 240 0
FLAG 576 192 0
FLAG 672 128 Gate
FLAG 928 64 0
FLAG 1040 208 0
FLAG 1296 80 0
FLAG 1424 80 0
FLAG 1408 -64 Out
FLAG 512 112 Ref
SYMBOL Misc\\battery -32 128 R0
SYMATTR InstName V1
SYMATTR Value 12V
SYMBOL polcap 80 160 R0
SYMATTR InstName C1
SYMATTR Value 10µF
SYMBOL res 304 -32 R0
SYMATTR InstName R3
SYMATTR Value 10k
SYMBOL res 208 112 R0
SYMATTR InstName R1
SYMATTR Value 10k
SYMBOL res 208 224 R0
SYMATTR InstName R5
SYMATTR Value 10k
SYMBOL cap 416 144 R0
SYMATTR InstName C3
SYMATTR Value 100nF
SYMBOL res 720 16 R90
WINDOW 0 0 56 VBottom 2
WINDOW 3 32 56 VTop 2
SYMATTR InstName R2
SYMATTR Value 2k
SYMBOL pmos 848 -16 M270
WINDOW 0 -9 60 VLeft 2
WINDOW 3 71 113 VLeft 2
SYMATTR InstName M1
SYMATTR Value Si4433DY
SYMBOL schottky 944 32 R180
WINDOW 0 24 64 Left 2
WINDOW 3 24 0 Left 2
SYMATTR InstName D2
SYMATTR Value 1N5817
SYMATTR Description Diode
SYMATTR Type diode
SYMBOL cap 1024 -32 R0
SYMATTR InstName C4
SYMATTR Value 1nF
SYMBOL res 1024 64 R0
SYMATTR InstName R4
SYMATTR Value 300
SYMBOL ind 1104 -48 R270
WINDOW 0 32 56 VTop 2
WINDOW 3 5 56 VBottom 2
SYMATTR InstName L1
SYMATTR Value 20µH
SYMBOL cap 1280 -16 R0
SYMATTR InstName C2
SYMATTR Value 470µF
SYMBOL res 1408 -48 R0
SYMATTR InstName RLoad
SYMATTR Value 5
SYMBOL Comparators\\LM393 576 128 R0
SYMATTR InstName U1
SYMBOL tl431 304 192 R0
SYMATTR InstName U2
TEXT 528 448 Left 2 !.tran 2ms startup
TEXT 536 480 Left 2 !.inc TL431.mod
