Version 4
SHEET 1 2312 928
WIRE -192 -48 -240 -48
WIRE 160 -48 -192 -48
WIRE 384 -48 160 -48
WIRE -240 -32 -240 -48
WIRE 64 -32 -48 -32
WIRE 560 -32 64 -32
WIRE 768 -32 560 -32
WIRE 560 -16 560 -32
WIRE 768 -16 768 -32
WIRE 64 0 64 -32
WIRE 160 0 160 -48
WIRE -240 48 -240 32
WIRE -48 64 -48 -32
WIRE -32 64 -48 64
WIRE 464 64 352 64
WIRE 512 64 464 64
WIRE 384 80 384 -48
WIRE 768 80 768 64
WIRE 384 160 384 144
WIRE 384 160 352 160
WIRE 496 160 384 160
WIRE 560 160 560 80
WIRE -192 256 -192 -48
WIRE -32 256 -192 256
WIRE 560 256 560 160
WIRE 560 256 352 256
WIRE 592 256 560 256
WIRE 640 256 592 256
WIRE 672 256 640 256
WIRE 784 256 752 256
WIRE 800 256 784 256
WIRE 896 256 880 256
WIRE 944 256 896 256
WIRE 976 256 944 256
WIRE 1040 256 976 256
WIRE 1120 256 1040 256
WIRE 560 272 560 256
WIRE 1120 272 1120 256
WIRE 640 288 640 256
WIRE 976 288 976 256
WIRE 1040 288 1040 256
WIRE -192 352 -192 256
WIRE -32 352 -192 352
WIRE 464 352 352 352
WIRE 512 352 464 352
WIRE 976 368 976 352
WIRE 1040 368 1040 352
WIRE 1120 368 1120 352
WIRE 560 384 560 368
WIRE 640 384 640 352
WIRE -192 448 -192 352
WIRE -32 448 -192 448
WIRE 784 448 784 256
WIRE 784 448 352 448
WIRE 944 496 944 256
WIRE -112 544 -160 544
WIRE -32 544 -48 544
WIRE 896 544 896 256
WIRE 896 544 352 544
WIRE -176 640 -192 640
WIRE -32 640 -112 640
WIRE 944 640 944 576
WIRE 944 640 352 640
WIRE 944 656 944 640
WIRE 80 720 80 704
WIRE 240 720 240 704
WIRE 944 752 944 736
FLAG 560 384 0
FLAG 1040 368 0
FLAG 1120 368 0
FLAG 944 752 0
FLAG 1120 256 OUT
FLAG -240 48 0
FLAG -192 640 0
FLAG -160 544 0
FLAG 768 80 0
FLAG 768 -32 IN
FLAG 80 720 0
FLAG 240 720 0
FLAG 464 64 TG
FLAG 464 352 BG
FLAG 592 256 SW
FLAG 640 384 0
FLAG 976 368 0
SYMBOL ind 656 272 R270
WINDOW 0 32 56 VTop 0
WINDOW 3 5 56 VBottom 0
SYMATTR InstName L1
SYMATTR Value 10µ
SYMATTR SpiceLine Rser=1.5m
SYMBOL res 928 480 R0
SYMATTR InstName R1
SYMATTR Value 13.3k
SYMBOL res 928 640 R0
SYMATTR InstName R2
SYMATTR Value 2.49k
SYMBOL cap 496 176 R270
WINDOW 0 32 32 VTop 0
WINDOW 3 0 32 VBottom 0
SYMATTR InstName C2
SYMATTR Value .1µ
SYMBOL cap -256 -32 R0
SYMATTR InstName C3
SYMATTR Value 4.7µ
SYMBOL cap -112 624 R90
WINDOW 0 0 32 VBottom 0
WINDOW 3 32 32 VTop 0
WINDOW 39 60 48 VTop 0
SYMATTR InstName C4
SYMATTR Value 2200p
SYMATTR SpiceLine Rser=10K Cpar=100p
SYMBOL cap -48 528 R90
WINDOW 0 0 32 VBottom 0
WINDOW 3 32 32 VTop 0
SYMATTR InstName C5
SYMATTR Value .01µ
SYMBOL voltage 768 -32 R0
WINDOW 3 20 93 Left 0
WINDOW 123 0 0 Left 0
WINDOW 39 0 0 Left 0
SYMATTR Value 24
SYMATTR InstName V1
SYMBOL schottky 368 80 R0
WINDOW 3 20 64 Left 0
WINDOW 0 21 2 Left 0
SYMATTR Value CMDSH2-3
SYMATTR InstName D1
SYMATTR Description Diode
SYMATTR Type diode
SYMBOL res 1104 256 R0
SYMATTR InstName Rload
SYMATTR Value 2.5
SYMBOL PowerProducts\\LTC3891 160 352 R0
SYMATTR InstName U1
SYMBOL res 784 272 R270
WINDOW 0 32 56 VTop 0
WINDOW 3 0 56 VBottom 0
SYMATTR InstName R4
SYMATTR Value 16m
SYMBOL schottky 656 352 R180
WINDOW 0 24 72 Left 0
WINDOW 3 -88 -4 Left 0
SYMATTR InstName D2
SYMATTR Value MBRS340
SYMATTR Description Diode
SYMATTR Type diode
SYMBOL cap 960 288 R0
WINDOW 3 24 104 Left 0
SYMATTR Value 4.7µ
SYMATTR InstName C6
SYMATTR SpiceLine Rser=70m
SYMBOL cap 1024 288 R0
WINDOW 3 24 104 Left 0
SYMATTR Value 4.7µ
SYMATTR InstName C1
SYMATTR SpiceLine Rser=70m
SYMBOL nmos 512 -16 R0
SYMATTR InstName Q1
SYMATTR Value RJK0305DPB
SYMBOL nmos 512 272 R0
WINDOW 3 -67 100 Left 0
SYMATTR InstName Q2
SYMATTR Value RJK0301DPB
TEXT -312 776 Left 0 !.tran 1m startup
